LAMMPS (7 Aug 2019)
# -var cell 10 -var lattice 2.9151 -var temp 1700 -var simtime 50000 -screen none
#------------------------------------------------
variable tstep equal 0.001
variable cell equal 10
variable lattice equal 2.88
variable simtime equal 100
variable temp equal 900
units           metal
boundary        p p p
atom_style      atomic
#------------------------------------------------
lattice         bcc 2.88
Lattice spacing in x,y,z = 2.88 2.88 2.88
region          box block 0 10 0 10 0 10
create_box      1 box
Created orthogonal box = (0 0 0) to (28.8 28.8 28.8)
create_atoms    1 box
Created 2000 atoms
mass            1 55.845
#------------------------------------------------
pair_style      eam/fs
pair_coeff      * * ../other/Fe_mm.eam.fs Fe
Reading potential file ../other/Fe_mm.eam.fs with DATE: 2007-06-11
#------------------------------------------------
create_atoms    1 single 5.5 5.3 5.3
Created 1 atoms
#------------------------------------------------
min_style       cg
minimize        1e-9 1e-9 5000 5000
  update every 1 steps, delay 0 steps, check yes
Step Temp E_pair E_mol TotEng Press
0            0   -7991.2905            0   -7991.2905   -23934.146
Loop time of 0.146502 on 2 procs for 33 steps with 2001 atoms

Minimization stats:
  Stopping criterion = energy tolerance
  Energy initial, next-to-last, final =
  Force two-norm initial, final = 1593.3 0.00974624
  Force max component initial, final = 799.934 0.00190483
  Final line search alpha, max atom move = 1 0.00190483
  Iterations, force evaluations = 33 59

thermo_style custom time temp press vol
thermo 100
#------------------------------------------------
velocity        all create $(2*v_temp) 352839 mom yes rot yes
velocity        all create 1800 352839 mom yes rot yes
variable time equal time
variable sim_temp equal temp
variable press equal press
run 0
Time Temp Press Volume
Loop time of 1.5e-06 on 2 procs for 0 steps with 2001 atoms

reset_timestep 0

fix             microcan all nve
run 500
Time Temp Press Volume
Loop time of 1.09067 on 2 procs for 500 steps with 2001 atoms

unfix microcan

fix thermostat all temp/rescale 10 900 900 1 1.0

fix barostat all nph iso -3544.52023261079 0 100
run 15500
Time Temp Press Volume
Loop time of 37.2872 on 2 procs for 15500 steps with 2001 atoms

unfix thermostat
unfix barostat

fix 1 all nve
#------------------------------------------------
timestep 0.001
variable total_timesteps equal 100/dt

dump sia_dump all custom 1000 ./Data/10.100.900.sia.dump x y z
run 100000
Time Temp Press Volume
Loop time of 255.153 on 2 procs for 100000 steps with 2001 atoms

#------------------------------------------------
