#------------------------------------------------
variable cell_size equal 10
variable total_time equal 100 #ps
variable total_timesteps equal 100/dt
units           metal
boundary        p p p
atom_style      atomic
#------------------------------------------------
lattice         bcc $l
lattice         bcc 2.9151
Lattice spacing in x,y,z = 2.9151 2.9151 2.9151
region          box block 0 10 0 10 0 10
create_box      1 box
Created orthogonal box = (0 0 0) to (29.151 29.151 29.151)
create_atoms    1 box
Created 2000 atoms
mass            1 55.845
#------------------------------------------------
pair_style      eam/fs
pair_coeff      * * ../Fe_mm.eam.fs Fe
Reading potential file ../Fe_mm.eam.fs with DATE: 2007-06-11
#------------------------------------------------
create_atoms 1 single 5.5 5.333 5.333
Created 1 atoms
#------------------------------------------------
min_style cg
minimize 1e-9 1e-9 5000 5000
  update every 1 steps, delay 0 steps, check yes
Step Temp E_pair E_mol TotEng Press
0            0   -7747.8829            0   -7747.8829   -68505.949
Loop time of 0.264923 on 1 procs for 32 steps with 2001 atoms

Minimization stats:
  Stopping criterion = energy tolerance
  Energy initial, next-to-last, final =
  Force two-norm initial, final = 3159.55 0.00939363
  Force max component initial, final = 1581.77 0.00257128
  Final line search alpha, max atom move = 1 0.00257128
  Iterations, force evaluations = 32 56

#------------------------------------------------
velocity        all create $(2*v_t) 352839
velocity        all create 3400 352839
fix             1 all nve
run 1000
Step Temp E_pair E_mol TotEng Press
32         3400   -8196.5977            0   -7317.6288   -62876.196
Loop time of 4.62061 on 1 procs for 1000 steps with 2001 atoms

reset_timestep 0
#------------------------------------------------
compute msd all msd
variable n equal count(all)
variable time equal time
variable temp equal temp
variable press equal press
variable sia_msd equal c_msd[4]*$n
variable sia_msd equal c_msd[4]*2001

dump sia_dump all custom 1000 ./data/dumps_$t/sia.dump x y z
dump sia_dump all custom 1000 ./data/dumps_1700/sia.dump x y z
write_restart ./data/restarts_$t/0
write_restart ./data/restarts_1700/0
restart 1000 ./data/restarts_$t/*
restart 1000 ./data/restarts_1700/*
thermo_style custom time temp press
thermo 10000
run 100000
Time Temp Press
Loop time of 523.206 on 1 procs for 100000 steps with 2001 atoms

#------------------------------------------------
